
 OpenBabel03242501173D

  3  2  0  0  0  0  0  0  0  0999 V2000
    1.0609   -0.0137    0.0982 O   0  0  0  0  0  0  0  0  0  0  0  0
    2.2579   -0.0137    0.0982 C   0  0  0  0  0  0  0  0  0  0  0  0
    3.4549   -0.0137    0.0982 O   0  0  0  0  0  0  0  0  0  0  0  0
  1  2  2  0  0  0  0
  2  3  2  0  0  0  0
M  END
